omf/scratch/mavaCapBanks/mavaCapBanksBaseCasePFPlayers.glm
clock {
	timezone CST+6CDT;
	starttime '2013-12-11 0:00:00';
	stoptime '2013-12-12 0:01:00';
};

#define stylesheet=http://gridlab-d.svn.sourceforge.net/viewvc/gridlab-d/trunk/core/gridlabd-2_0

#set minimum_timestep=60

#set profiler=1

#set relax_naming_rules=1

module tape {
};

module climate {
};

module powerflow {
	solver_method NR;
	NR_iteration_limit 50;
};

class player{
	double value;
};

object player {
	property value;
	name norm_feeder_loadshape;
	file C:/Projects/eclipse_workspace/NRECA_OMF/src/omf/omf/scratch/mavaCapBanks/loadShapeScalar.player;
	loop 0;
};

object player {
	property value;
	name residential_power_pfA;
	file C:/Projects/eclipse_workspace/NRECA_OMF/src/omf/omf/scratch/mavaCapBanks/phaseApf.player;
	loop 0;
};

object player {
	property value;
	name residential_power_pfB;
	file C:/Projects/eclipse_workspace/NRECA_OMF/src/omf/omf/scratch/mavaCapBanks/phaseBpf.player;
	loop 0;
};

object player {
	property value;
	name residential_power_pfC;
	file C:/Projects/eclipse_workspace/NRECA_OMF/src/omf/omf/scratch/mavaCapBanks/phaseCpf.player;
	loop 0;
};

object transformer_configuration {
	name trans_config_to_feeder;
	primary_voltage 7200;
	install_type PADMOUNT;
	impedance 0.00033+0.0022j;
	secondary_voltage 7200.001;
	connect_type WYE_WYE;
	power_rating 1650500.9 MVA;
};

object meter {
	phases ABCN;
	nominal_voltage 7200;
	name network_node;
	bustype SWING;
};

object player {
	property voltage_A;
	file C:/Projects/eclipse_workspace/NRECA_OMF/src/omf/omf/scratch/mavaCapBanks/phaseAVoltage.player;
	loop 0;
	parent network_node;
};

object player {
	property voltage_B;
	file C:/Projects/eclipse_workspace/NRECA_OMF/src/omf/omf/scratch/mavaCapBanks/phaseBVoltage.player;
	loop 0;
	parent network_node;
};

object player {
	property voltage_C;
	file C:/Projects/eclipse_workspace/NRECA_OMF/src/omf/omf/scratch/mavaCapBanks/phaseCVoltage.player;
	loop 0;
	parent network_node;
};

object transformer {
	phases ABCN;
	from network_node;
	name substation_transformer;
	to STONECITY(25);
	configuration trans_config_to_feeder;
	groupid Distribution_Trans;
	object recorder {
		property power_out.real,power_out.imag;
		file mavaCapBankpfPlayersWinter.csv;
		interval 900;
	};
};

object meter {
	phases ABCN;
	name STONECITY(25);
	longitude 798.55956165;
	nominal_voltage 7200.0;
	latitude 80.7468912822;
};

object overhead_line {
	phases ACBN;
	from STONECITY(25);
	name 100037138;
	longitude 799.41076191;
	to node100044451100037138;
	length 45.5201;
	latitude 80.4743178946;
	configuration 100037370-LINECONFIG;
	groupid Distribution_Line;
};

object overhead_line {
	phases ACBN;
	from STONECITY(25);
	name 100037403;
	longitude 797.695020919;
	to node100044448100037403;
	length 48.9003;
	latitude 80.2375653732;
	configuration 100044450-LINECONFIG;
	groupid Distribution_Line;
};

object overhead_line {
	phases ACB;
	from node100044448100037403;
	name 100044448;
	longitude 797.227314122;
	to node25-01100044448;
	length 35.509;
	latitude 79.5446727539;
	configuration 100044450-LINECONFIG;
	groupid Distribution_Line;
};

object fuse {
	phases ACB;
	from node25-01100044448;
	name 25-01;
	current_limit 9999.0 A;
	longitude 797.227314122;
	to node10004444925-01;
	latitude 79.5446727539;
};

object overhead_line {
	phases ACBN;
	from node10004444925-01;
	name 100044449;
	longitude 796.921480838;
	to node100038710100044449;
	length 23.2194;
	latitude 79.0915878551;
	configuration 100044450-LINECONFIG;
	groupid Distribution_Line;
};

object overhead_line {
	phases ACBN;
	from node100038710100044449;
	name 100038710;
	longitude 775.370236817;
	to node100038199100038710;
	length 1169.16;
	latitude 85.2493386128;
	configuration 100044450-LINECONFIG;
	groupid Distribution_Line;
};

object overhead_line {
	phases ACB;
	from node100038199100038710;
	name 100038199;
	longitude 776.494156862;
	to nodeT95060019100038199;
	length 194.449;
	latitude 90.2258365414;
	configuration 100044450-LINECONFIG;
	groupid Distribution_Line;
};

object overhead_line {
	phases ACB;
	from node100038199100038710;
	name 100041428;
	longitude 696.127489087;
	to node100041418100041428;
	length 4481.51;
	latitude 127.533008637;
	configuration 100044450-LINECONFIG;
	groupid Distribution_Line;
};

object underground_line {
	phases ACB;
	from node100041418100041428;
	name 100041418;
	longitude 668.253372302;
	to node100047422100041418;
	length 2140.83;
	latitude 116.170789829;
	configuration 100046964-LINECONFIG;
	groupid Distribution_Line;
};

object underground_line {
	phases ACB;
	from node100047422100041418;
	name 100047422;
	longitude 662.831939072;
	to node100046695100047422;
	length 335.442;
	latitude 121.020522267;
	configuration 100046964-LINECONFIG;
	groupid Distribution_Line;
};

object underground_line {
	phases ACB;
	from node100046695100047422;
	name 100046695;
	longitude 656.20037385;
	to node100046964100046695;
	length 410.318;
	latitude 126.952847009;
	configuration 100046964-LINECONFIG;
	groupid Distribution_Line;
};

object line_configuration {
	name 100046964-LINECONFIG;
	spacing 100046964-LINESPACING;
	conductor_A 100046763-LINECONFIGunderground_line_conductor115604;
	conductor_C 100046763-LINECONFIGunderground_line_conductor115604;
	conductor_B 100046763-LINECONFIGunderground_line_conductor115604;
};

object line_spacing {
	distance_AN 0.0;
	name 100046964-LINESPACING;
	distance_CN 0.0;
	distance_BC 2.948634;
	distance_AB 3.887301;
	distance_AC 5.500000;
	distance_BN 0.0;
};

object underground_line {
	phases ACB;
	from node100046964100046695;
	name 100046964;
	longitude 626.474808334;
	to node100047624100046964;
	length 1888.18;
	latitude 154.821165506;
	configuration 100046964-LINECONFIG;
	groupid Distribution_Line;
};

object overhead_line {
	phases B;
	from node100047624100046964;
	name 100047624;
	longitude 626.793667135;
	to nodeD11398100047624;
	length 19.2695;
	latitude 155.082803907;
	configuration 100041200-LINECONFIG;
	groupid Distribution_Line;
};

object fuse {
	phases B;
	from nodeD11398100047624;
	name D11398;
	current_limit 9999.0 A;
	longitude 626.793667135;
	to node100047530D11398;
	latitude 155.082803907;
};

object overhead_line {
	phases BN;
	from node100047530D11398;
	name 100047530;
	longitude 628.293853091;
	to node100044049100047530;
	length 78.8907;
	latitude 155.361540192;
	configuration 100041200-LINECONFIG;
	groupid Distribution_Line;
};

object overhead_line {
	phases BN;
	from node100044049100047530;
	name 100044049;
	longitude 631.171211438;
	to node100032177100044049;
	length 191.695;
	latitude 152.15772756;
	configuration 100041200-LINECONFIG;
	groupid Distribution_Line;
};

object overhead_line {
	phases B;
	from node100032177100044049;
	name 100032177;
	longitude 641.762381592;
	to nodeT99300187100032177;
	length 702.919;
	latitude 140.500877024;
	configuration 100041200-LINECONFIG;
	groupid Distribution_Line;
};

object overhead_line {
	phases B;
	from node100044049100047530;
	name 100045547;
	longitude 628.313541818;
	to nodeT99290179100045547;
	length 56.4687;
	latitude 156.876925009;
	configuration 100041200-LINECONFIG;
	groupid Distribution_Line;
};

object overhead_line {
	phases ACBN;
	from node100047624100046964;
	name 100047632;
	longitude 624.558308123;
	to node100046784100047632;
	length 100.957;
	latitude 154.431215187;
	configuration 100037370-LINECONFIG;
	groupid Distribution_Line;
};

object line_configuration {
	name 100046784-LINECONFIG;
	spacing 100091342-LINESPACING;
	conductor_N 100039163_conductor_N;
	conductor_A 100039163_conductor_N;
	conductor_C 100039163_conductor_N;
	conductor_B 100039163_conductor_N;
};

object overhead_line {
	phases ACBN;
	from node100046784100047632;
	name 100046784;
	longitude 621.967598962;
	to node100047678100046784;
	length 136.473;
	latitude 153.904098459;
	configuration 100046784-LINECONFIG;
	groupid Distribution_Line;
};

object overhead_line {
	phases ACBN;
	from node100047678100046784;
	name 100047678;
	longitude 614.460637046;
	to node100041990100047678;
	length 396.36;
	latitude 152.215498652;
	configuration 100046784-LINECONFIG;
	groupid Distribution_Line;
};

object overhead_line {
	phases ACBN;
	from node100041990100047678;
	name 100041990;
	longitude 613.844826903;
	to node100043793100041990;
	length 32.5142;
	latitude 152.07698564;
	configuration 100046784-LINECONFIG;
	groupid Distribution_Line;
};

object overhead_line {
	phases ACBN;
	from node100043793100041990;
	name 100043793;
	longitude 577.464703347;
	to node100032308100043793;
	length 2282.58;
	latitude 153.703430536;
	configuration 100046784-LINECONFIG;
	groupid Distribution_Line;
};

object overhead_line {
	phases ACBN;
	from node100032308100043793;
	name 100032308;
	longitude 564.077817031;
	to node100032490100032308;
	length 698.282;
	latitude 153.047459636;
	configuration 100046784-LINECONFIG;
	groupid Distribution_Line;
};

object overhead_line {
	phases ACBN;
	from node100032490100032308;
	name 100032490;
	longitude 556.923380047;
	to node100035457100032490;
	length 373.537;
	latitude 152.489489071;
	configuration 100046784-LINECONFIG;
	groupid Distribution_Line;
};

object overhead_line {
	phases ACBN;
	from node100035457100032490;
	name 100035457;
	longitude 548.295546935;
	to node100036852100035457;
	length 450.594;
	latitude 151.756899585;
	configuration 100046784-LINECONFIG;
	groupid Distribution_Line;
};

object overhead_line {
	phases ACBN;
	from node100036852100035457;
	name 100036852;
	longitude 539.840214988;
	to node100037727100036852;
	length 555.972;
	latitude 157.561308839;
	configuration 100046784-LINECONFIG;
	groupid Distribution_Line;
};

object overhead_line {
	phases ACBN;
	from node100037727100036852;
	name 100037727;
	longitude 516.753895357;
	to node100035375100037727;
	length 1203.99;
	latitude 156.757497027;
	configuration 100046784-LINECONFIG;
	groupid Distribution_Line;
};

object overhead_line {
	phases ACBN;
	from node100035375100037727;
	name 100035375;
	longitude 499.535099835;
	to node100034262100035375;
	length 898.26;
	latitude 155.840611822;
	configuration 100046784-LINECONFIG;
	groupid Distribution_Line;
};

object overhead_line {
	phases ACBN;
	from node100034262100035375;
	name 100034262;
	longitude 481.534611724;
	to node100039163100034262;
	length 939.095;
	latitude 154.843674359;
	configuration 100046784-LINECONFIG;
	groupid Distribution_Line;
};

object overhead_line_conductor {
	geometric_mean_radius 0.0235;
	diameter 1.004;
	resistance 0.342;
	name 100039163_conductor_N;
};

object overhead_line {
	phases ACBN;
	from node100039163100034262;
	name 100039163;
	longitude 464.928193465;
	to node100035463100039163;
	length 866.466;
	latitude 153.980952917;
	configuration 100046784-LINECONFIG;
	groupid Distribution_Line;
};

object overhead_line {
	phases ACBN;
	from node100035463100039163;
	name 100035463;
	longitude 456.622515048;
	to node100034273100035463;
	length 599.588;
	latitude 147.188742433;
	configuration 100091355-LINECONFIG;
	groupid Distribution_Line;
};

object overhead_line {
	phases ACBN;
	from node100034273100035463;
	name 100034273;
	longitude 449.887293641;
	to node100039582100034273;
	length 351.196;
	latitude 146.974493852;
	configuration 100091355-LINECONFIG;
	groupid Distribution_Line;
};

object overhead_line {
	phases ACBN;
	from node100039582100034273;
	name 100039582;
	longitude 449.619976079;
	to node100042979100039582;
	length 13.94;
	latitude 146.964636823;
	configuration 100091355-LINECONFIG;
	groupid Distribution_Line;
};

object overhead_line {
	phases ACB;
	from node100042979100039582;
	name 100042979;
	longitude 449.249491741;
	to nodeD10257100042979;
	length 19.3199;
	latitude 146.950980798;
	configuration 100091355-LINECONFIG;
	groupid Distribution_Line;
};

object fuse {
	phases ACB;
	from nodeD10257100042979;
	name D10257;
	current_limit 9999.0 A;
	longitude 449.249491741;
	to node100091355D10257;
	latitude 146.950980798;
};

object line_configuration {
	name 100091355-LINECONFIG;
	spacing 100091342-LINESPACING;
	conductor_N 100043055_conductor_N;
	conductor_A 100043055_conductor_N;
	conductor_C 100043055_conductor_N;
	conductor_B 100043055_conductor_N;
};

object overhead_line {
	phases ACBN;
	from node100091355D10257;
	name 100091355;
	longitude 443.517503258;
	to node100091331100091355;
	length 301.021;
	latitude 147.929157597;
	configuration 100091355-LINECONFIG;
	groupid Distribution_Line;
};

object line_configuration {
	conductor_C 100045593_conductor_N;
	conductor_N 100094845_conductor_N;
	spacing 100032077-LINESPACING;
	name 100091331-LINECONFIG;
};

object overhead_line {
	phases CN;
	from node100091331100091355;
	name 100091331;
	longitude 440.958476837;
	to node100091354100091331;
	length 135.303;
	latitude 147.322445672;
	configuration 100091331-LINECONFIG;
	groupid Distribution_Line;
};

object overhead_line {
	phases CN;
	from node100091354100091331;
	name 100091354;
	longitude 440.067752767;
	to node100044338100091354;
	length 414.497;
	latitude 136.267267965;
	configuration 100101693-LINECONFIG;
	groupid Distribution_Line;
};

object overhead_line {
	phases C;
	from node100044338100091354;
	name 100044338;
	longitude 440.060862415;
	to nodeD11006100044338;
	length 37.6741;
	latitude 135.256130586;
	configuration 100101693-LINECONFIG;
	groupid Distribution_Line;
};

object fuse {
	phases C;
	from nodeD11006100044338;
	name D11006;
	current_limit 9999.0 A;
	longitude 440.060862415;
	to node100035764D11006;
	latitude 135.256130586;
};

object overhead_line {
	phases CN;
	from node100035764D11006;
	name 100035764;
	longitude 440.060862415;
	to node100032013100035764;
	length 698.747;
	latitude 116.501574972;
	configuration 100101693-LINECONFIG;
	groupid Distribution_Line;
};

object line_spacing {
	distance_AN 6.009252;
	name 100091342-LINESPACING;
	distance_CN 5.449261;
	distance_BC 2.948634;
	distance_AB 3.887301;
	distance_AC 5.500000;
	distance_BN 7.000000;
};

object overhead_line {
	phases ACBN;
	from node100091331100091355;
	name 100091342;
	longitude 443.430239906;
	to node100091343100091342;
	length 79.0732;
	latitude 150.04798611;
	configuration 100044450-LINECONFIG;
	groupid Distribution_Line;
};

object overhead_line {
	phases ACBN;
	from node100091343100091342;
	name 100091343;
	longitude 439.306984133;
	to node100091344100091343;
	length 215.02;
	latitude 149.894137946;
	configuration 100044450-LINECONFIG;
	groupid Distribution_Line;
};

object overhead_line {
	phases ACBN;
	from node100091344100091343;
	name 100091344;
	longitude 434.806236588;
	to node100091345100091344;
	length 234.699;
	latitude 149.733161952;
	configuration 100044450-LINECONFIG;
	groupid Distribution_Line;
};

object overhead_line {
	phases ACBN;
	from node100091345100091344;
	name 100091345;
	longitude 430.586782838;
	to node100091346100091345;
	length 220.03;
	latitude 149.5827163;
	configuration 100044450-LINECONFIG;
	groupid Distribution_Line;
};

object overhead_line {
	phases ACBN;
	from node100091346100091345;
	name 100091346;
	longitude 426.02351281;
	to node100091347100091346;
	length 237.962;
	latitude 149.416784763;
	configuration 100044450-LINECONFIG;
	groupid Distribution_Line;
};

object overhead_line {
	phases CN;
	from node100091347100091346;
	name 100091347;
	longitude 426.0880983;
	to node100091356100091347;
	length 64.7891;
	latitude 147.680177542;
	configuration 100038549-LINECONFIG;
	groupid Distribution_Line;
};

object overhead_line {
	phases C;
	from node100091356100091347;
	name 100091356;
	longitude 426.251897834;
	to nodeT99180081100091356;
	length 148.046;
	latitude 143.713203384;
	configuration 100101693-LINECONFIG;
	groupid Distribution_Line;
};

object overhead_line {
	phases ACBN;
	from node100091347100091346;
	name 100091348;
	longitude 422.190952623;
	to node100091349100091348;
	length 199.838;
	latitude 149.298854117;
	configuration 100044450-LINECONFIG;
	groupid Distribution_Line;
};

object overhead_line {
	phases ACBN;
	from node100091349100091348;
	name 100091349;
	longitude 418.729703381;
	to node100091321100091349;
	length 180.475;
	latitude 149.195437875;
	configuration 100044450-LINECONFIG;
	groupid Distribution_Line;
};

object overhead_line {
	phases ACBN;
	from node100091321100091349;
	name 100091321;
	longitude 414.914184668;
	to node100091322100091321;
	length 198.948;
	latitude 149.080202044;
	configuration 100044450-LINECONFIG;
	groupid Distribution_Line;
};

object overhead_line {
	phases ACBN;
	from node100091322100091321;
	name 100091322;
	longitude 412.420953206;
	to node100091357100091322;
	length 130;
	latitude 149.007117085;
	configuration 100044450-LINECONFIG;
	groupid Distribution_Line;
};

object overhead_line {
	phases A;
	from node100091357100091322;
	name 100091357;
	longitude 409.065973448;
	to nodeT99170079100091357;
	length 768.239;
	latitude 167.115745609;
	configuration 100043055-LINECONFIG;
	groupid Distribution_Line;
};

object overhead_line {
	phases ACBN;
	from node100091357100091322;
	name 100091358;
	longitude 408.393489134;
	to nodeC204100091358;
	length 210;
	latitude 148.884343895;
	configuration 100044450-LINECONFIG;
	groupid Distribution_Line;
};

object capacitor {
	control MANUAL;
	phases ABCN;
	name C204;
	parent nodeC204100091358;
	capacitor_B 50000.0;
	capacitor_C 50000.0;
	capacitor_A 50000.0;
	longitude 408.393489134;
	switchC CLOSED;
	nominal_voltage 7200.0;
	control_level BANK;
	latitude 148.884343895;
	switchB CLOSED;
	switchA CLOSED;
	phases_connected ABCN;
	pt_phase A;
};

object overhead_line {
	phases ACBN;
	from nodeC204100091358;
	name 100091359;
	longitude 407.818139464;
	to node100091324100091359;
	length 29.9999;
	latitude 148.866800435;
	configuration 100044450-LINECONFIG;
	groupid Distribution_Line;
};

object overhead_line {
	phases ACBN;
	from node100091324100091359;
	name 100091324;
	longitude 403.407105827;
	to node100091325100091324;
	length 230;
	latitude 148.732792478;
	configuration 100044450-LINECONFIG;
	groupid Distribution_Line;
};

object overhead_line {
	phases ACBN;
	from node100091325100091324;
	name 100091325;
	longitude 398.900246533;
	to node100091326100091325;
	length 235;
	latitude 148.591671453;
	configuration 100044450-LINECONFIG;
	groupid Distribution_Line;
};

object overhead_line {
	phases ACBN;
	from node100091326100091325;
	name 100091326;
	longitude 394.585080699;
	to node100091327100091326;
	length 225;
	latitude 148.462168552;
	configuration 100044450-LINECONFIG;
	groupid Distribution_Line;
};

object overhead_line {
	phases ACBN;
	from node100091327100091326;
	name 100091327;
	longitude 390.445930869;
	to node100091328100091327;
	length 215.826;
	latitude 148.332852406;
	configuration 100044450-LINECONFIG;
	groupid Distribution_Line;
};

object overhead_line {
	phases ACBN;
	from node100091328100091327;
	name 100091328;
	longitude 386.418421134;
	to node100091329100091328;
	length 210.006;
	latitude 148.206408006;
	configuration 100044450-LINECONFIG;
	groupid Distribution_Line;
};

object overhead_line {
	phases ACBN;
	from node100091329100091328;
	name 100091329;
	longitude 382.009102767;
	to node100091330100091329;
	length 229.908;
	latitude 148.07534064;
	configuration 100044450-LINECONFIG;
	groupid Distribution_Line;
};

object overhead_line {
	phases ACBN;
	from node100091330100091329;
	name 100091330;
	longitude 377.978209325;
	to node100091332100091330;
	length 210.178;
	latitude 147.95333084;
	configuration 100044450-LINECONFIG;
	groupid Distribution_Line;
};

object overhead_line {
	phases ACBN;
	from node100091332100091330;
	name 100091332;
	longitude 373.571615486;
	to node100091333100091332;
	length 229.773;
	latitude 147.814544272;
	configuration 100044450-LINECONFIG;
	groupid Distribution_Line;
};

object overhead_line {
	phases ACBN;
	from node100091333100091332;
	name 100091333;
	longitude 369.542410384;
	to node100091334100091333;
	length 210.091;
	latitude 147.692093809;
	configuration 100044450-LINECONFIG;
	groupid Distribution_Line;
};

object overhead_line {
	phases ACBN;
	from node100091334100091333;
	name 100091334;
	longitude 365.215413283;
	to node100091335100091334;
	length 225.619;
	latitude 147.559488148;
	configuration 100044450-LINECONFIG;
	groupid Distribution_Line;
};

object overhead_line {
	phases BN;
	from node100091335100091334;
	name 100091335;
	longitude 365.232235811;
	to node100091360100091335;
	length 62.7852;
	latitude 145.874482574;
	configuration 100041200-LINECONFIG;
	groupid Distribution_Line;
};

object overhead_line {
	phases B;
	from node100091360100091335;
	name 100091360;
	longitude 365.162237562;
	to nodeT99180312100091360;
	length 281.606;
	latitude 138.31675152;
	configuration 100041200-LINECONFIG;
	groupid Distribution_Line;
};

object overhead_line {
	phases ACBN;
	from node100091335100091334;
	name 100091336;
	longitude 361.189667994;
	to node100091337100091336;
	length 209.909;
	latitude 147.439033016;
	configuration 100044450-LINECONFIG;
	groupid Distribution_Line;
};

object overhead_line {
	phases ACBN;
	from node100091337100091336;
	name 100091337;
	longitude 357.523979606;
	to node100091338100091337;
	length 191.131;
	latitude 147.334152262;
	configuration 100044450-LINECONFIG;
	groupid Distribution_Line;
};

object overhead_line {
	phases ACBN;
	from node100091338100091337;
	name 100091338;
	longitude 353.514471429;
	to node100091339100091338;
	length 209.063;
	latitude 147.213000894;
	configuration 100044450-LINECONFIG;
	groupid Distribution_Line;
};

object overhead_line {
	phases ACBN;
	from node100091339100091338;
	name 100091339;
	longitude 349.871802789;
	to node100091340100091339;
	length 189.932;
	latitude 147.106766962;
	configuration 100044450-LINECONFIG;
	groupid Distribution_Line;
};

object overhead_line {
	phases ACBN;
	from node100091340100091339;
	name 100091340;
	longitude 346.028104466;
	to node100091341100091340;
	length 200.413;
	latitude 146.996717661;
	configuration 100044450-LINECONFIG;
	groupid Distribution_Line;
};

object overhead_line {
	phases ACBN;
	from node100091341100091340;
	name 100091341;
	longitude 342.293555879;
	to node100096873100091341;
	length 194.726;
	latitude 146.884599326;
	configuration 100044450-LINECONFIG;
	groupid Distribution_Line;
};

object overhead_line {
	phases ACBN;
	from node100096873100091341;
	name 100096873;
	longitude 338.398132497;
	to node100097837100096873;
	length 203.257;
	latitude 146.648749469;
	configuration 100044450-LINECONFIG;
	groupid Distribution_Line;
};

object overhead_line {
	phases CN;
	from node100097837100096873;
	name 100097837;
	longitude 337.332932067;
	to node100033449100097837;
	length 2441.04;
	latitude 81.3659781203;
	configuration 100101693-LINECONFIG;
	groupid Distribution_Line;
};

object overhead_line {
	phases C;
	from node100033449100097837;
	name 100033449;
	longitude 331.780817483;
	to nodeT99070043100033449;
	length 289.431;
	latitude 81.3414608384;
	configuration 100101693-LINECONFIG;
	groupid Distribution_Line;
};

object overhead_line {
	phases CN;
	from node100033449100097837;
	name 100034120;
	longitude 343.753461667;
	to node100045426100034120;
	length 406.264;
	latitude 75.185364675;
	configuration 100101693-LINECONFIG;
	groupid Distribution_Line;
};

object overhead_line {
	phases CN;
	from node100045426100034120;
	name 100045426;
	longitude 343.753461667;
	to node100041758100045426;
	length 326.358;
	latitude 66.4258230108;
	configuration 100101693-LINECONFIG;
	groupid Distribution_Line;
};

object overhead_line {
	phases C;
	from node100041758100045426;
	name 100041758;
	longitude 348.88419229;
	to nodeT99180080100041758;
	length 530.387;
	latitude 78.7189319992;
	configuration 100032077-LINECONFIG;
	groupid Distribution_Line;
};

object overhead_line {
	phases CN;
	from node100041758100045426;
	name 100045680;
	longitude 343.753461667;
	to node100037941100045680;
	length 1892.69;
	latitude 15.6254710745;
	configuration 100101693-LINECONFIG;
	groupid Distribution_Line;
};

object overhead_line {
	phases C;
	from node100037941100045680;
	name 100037941;
	longitude 334.926256775;
	to nodeSW368-A-A100037941;
	length 460.248;
	latitude 15.3834796043;
	configuration 100101693-LINECONFIG;
	groupid Distribution_Line;
};

object overhead_line {
	phases CN;
	from node100037941100045680;
	name 100101694;
	longitude 382.807983184;
	to node100101692100101694;
	length 2035.96;
	latitude 15.1982025795;
	configuration 100101693-LINECONFIG;
	groupid Distribution_Line;
};

object line_configuration {
	conductor_C 100043055_conductor_N;
	conductor_N 100043055_conductor_N;
	spacing 100032077-LINESPACING;
	name 100101693-LINECONFIG;
};

object overhead_line {
	phases C;
	from node100101692100101694;
	name 100101693;
	longitude 381.245157663;
	to nodeT75130012100101693;
	length 317.056;
	latitude 6.97408005853;
	configuration 100101693-LINECONFIG;
	groupid Distribution_Line;
};

object overhead_line {
	phases ACBN;
	from node100097837100096873;
	name 100097838;
	longitude 338.871280153;
	to node100046109100097838;
	length 1621.6;
	latitude 190.143420367;
	configuration 100037370-LINECONFIG;
	groupid Distribution_Line;
};

object overhead_line {
	phases ACBN;
	from node100046109100097838;
	name 100046109;
	longitude 338.847170361;
	to node100043855100046109;
	length 139.495;
	latitude 193.88735705;
	configuration 100037370-LINECONFIG;
	groupid Distribution_Line;
};

object overhead_line {
	phases ACBN;
	from node100043855100046109;
	name 100043855;
	longitude 338.858649208;
	to node100043856100043855;
	length 200.755;
	latitude 199.275639198;
	configuration 100037370-LINECONFIG;
	groupid Distribution_Line;
};

object overhead_line {
	phases BN;
	from node100043856100043855;
	name 100043856;
	longitude 338.867512413;
	to node100096525100043856;
	length 155.041;
	latitude 203.436962735;
	configuration 100037370-LINECONFIG;
	groupid Distribution_Line;
};

object overhead_line {
	phases B;
	from node100096525100043856;
	name 100096525;
	longitude 338.877859065;
	to nodeD14678100096525;
	length 30;
	latitude 204.242040871;
	configuration 100032105-LINECONFIG;
	groupid Distribution_Line;
};

object fuse {
	phases B;
	from nodeD14678100096525;
	name D14678;
	current_limit 9999.0 A;
	longitude 338.877859065;
	to node100096526D14678;
	latitude 204.242040871;
};

object overhead_line {
	phases BN;
	from node100096526D14678;
	name 100096526;
	longitude 335.538591886;
	to node100032588100096526;
	length 1934.55;
	latitude 255.923580047;
	configuration 100032105-LINECONFIG;
	groupid Distribution_Line;
};

object overhead_line {
	phases B;
	from node100032588100096526;
	name 100032588;
	longitude 362.932840433;
	to nodeT99170078100032588;
	length 1811.15;
	latitude 246.051879851;
	configuration 100041200-LINECONFIG;
	groupid Distribution_Line;
};

object overhead_line {
	phases BN;
	from node100032588100096526;
	name 100038476;
	longitude 335.504794622;
	to node100032105100038476;
	length 226.27;
	latitude 261.996540892;
	configuration 100032105-LINECONFIG;
	groupid Distribution_Line;
};

object line_configuration {
	conductor_N 100094845_conductor_N;
	spacing 100041200-LINESPACING;
	name 100032105-LINECONFIG;
	conductor_B 100045593_conductor_N;
};

object overhead_line {
	phases BN;
	from node100032105100038476;
	name 100032105;
	longitude 335.249346964;
	to node100033638100032105;
	length 1710.34;
	latitude 307.901123748;
	configuration 100032105-LINECONFIG;
	groupid Distribution_Line;
};

object line_configuration {
	conductor_N 100045593_conductor_N;
	spacing 100041200-LINESPACING;
	name 100033638-LINECONFIG;
	conductor_B 100045593_conductor_N;
};

object overhead_line {
	phases BN;
	from node100033638100032105;
	name 100033638;
	longitude 328.61736844;
	to node100035416100033638;
	length 2295.89;
	latitude 366.210288447;
	configuration 100033638-LINECONFIG;
	groupid Distribution_Line;
};

object overhead_line {
	phases BN;
	from node100035416100033638;
	name 100035416;
	longitude 285.288483448;
	to node100037929100035416;
	length 2265.63;
	latitude 362.384784238;
	configuration 100034925-LINECONFIG;
	groupid Distribution_Line;
};

object overhead_line {
	phases BN;
	from node100037929100035416;
	name 100037929;
	longitude 278.334495412;
	to node100032334100037929;
	length 362.701;
	latitude 362.068380853;
	configuration 100034925-LINECONFIG;
	groupid Distribution_Line;
};

object overhead_line {
	phases B;
	from node100032334100037929;
	name 100032334;
	longitude 235.86175979;
	to nodeSW218-A-A100032334;
	length 2214.23;
	latitude 361.541994743;
	configuration 100034925-LINECONFIG;
	groupid Distribution_Line;
};

object overhead_line {
	phases B;
	from node100032334100037929;
	name 100034927;
	longitude 278.334495412;
	to nodeT99090050100034927;
	length 433.58;
	latitude 350.430983944;
	configuration 100034925-LINECONFIG;
	groupid Distribution_Line;
};

object overhead_line {
	phases BN;
	from node100037929100035416;
	name 100041687;
	longitude 283.672094659;
	to node100041688100041687;
	length 367.893;
	latitude 371.996638211;
	configuration 100034925-LINECONFIG;
	groupid Distribution_Line;
};

object overhead_line {
	phases B;
	from node100041688100041687;
	name 100041688;
	longitude 282.109518526;
	to nodeT99090051100041688;
	length 355.644;
	latitude 381.288476584;
	configuration 100034925-LINECONFIG;
	groupid Distribution_Line;
};

object overhead_line {
	phases B;
	from node100035416100033638;
	name 100038788;
	longitude 347.154877831;
	to nodeT99160067100038788;
	length 988.926;
	latitude 360.571687855;
	configuration 100041200-LINECONFIG;
	groupid Distribution_Line;
};

object overhead_line {
	phases B;
	from node100032105100038476;
	name 100045475;
	longitude 329.842954254;
	to nodeT99080049100045475;
	length 316.475;
	latitude 265.061858548;
	configuration 100034925-LINECONFIG;
	groupid Distribution_Line;
};

object overhead_line {
	phases ACB;
	from node100043856100043855;
	name 100043857;
	longitude 334.908140475;
	to nodeT99080284100043857;
	length 206.029;
	latitude 199.439649108;
	configuration 100037370-LINECONFIG;
	groupid Distribution_Line;
};

object overhead_line {
	phases ACBN;
	from node100097837100096873;
	name 100096928;
	longitude 334.901130698;
	to node100096988100096928;
	length 182.372;
	latitude 146.788441949;
	configuration 100044450-LINECONFIG;
	groupid Distribution_Line;
};

object overhead_line {
	phases ACBN;
	from node100096988100096928;
	name 100096988;
	longitude 331.830773414;
	to node100096998100096988;
	length 160.083;
	latitude 146.710599663;
	configuration 100044450-LINECONFIG;
	groupid Distribution_Line;
};

object overhead_line {
	phases ACBN;
	from node100096998100096988;
	name 100096998;
	longitude 328.625187263;
	to node100097003100096998;
	length 167.136;
	latitude 146.625839247;
	configuration 100044450-LINECONFIG;
	groupid Distribution_Line;
};

object overhead_line {
	phases ACBN;
	from node100097003100096998;
	name 100097003;
	longitude 324.580984963;
	to node100097008100097003;
	length 210.886;
	latitude 146.487090336;
	configuration 100044450-LINECONFIG;
	groupid Distribution_Line;
};

object overhead_line {
	phases ACBN;
	from node100097008100097003;
	name 100097008;
	longitude 320.740190306;
	to node100097013100097008;
	length 200.291;
	latitude 146.343677502;
	configuration 100044450-LINECONFIG;
	groupid Distribution_Line;
};

object overhead_line {
	phases ACBN;
	from node100097013100097008;
	name 100097013;
	longitude 316.521895681;
	to node100097018100097013;
	length 219.941;
	latitude 146.22757669;
	configuration 100044450-LINECONFIG;
	groupid Distribution_Line;
};

object overhead_line {
	phases ACBN;
	from node100097018100097013;
	name 100097018;
	longitude 312.683537526;
	to node100097023100097018;
	length 200.132;
	latitude 146.121156004;
	configuration 100044450-LINECONFIG;
	groupid Distribution_Line;
};

object overhead_line {
	phases ACBN;
	from node100097023100097018;
	name 100097023;
	longitude 308.464164564;
	to node100096878100097023;
	length 220;
	latitude 146.000750016;
	configuration 100044450-LINECONFIG;
	groupid Distribution_Line;
};

object overhead_line {
	phases ACBN;
	from node100096878100097023;
	name 100096878;
	longitude 304.632025875;
	to node100096883100096878;
	length 199.806;
	latitude 145.896986515;
	configuration 100044450-LINECONFIG;
	groupid Distribution_Line;
};

object overhead_line {
	phases ACBN;
	from node100096883100096878;
	name 100096883;
	longitude 300.418011815;
	to node100096888100096883;
	length 219.721;
	latitude 145.77642488;
	configuration 100044450-LINECONFIG;
	groupid Distribution_Line;
};

object overhead_line {
	phases ACB;
	from node100096888100096883;
	name 100096888;
	longitude 296.572330102;
	to nodeR254100096888;
	length 200.511;
	latitude 145.673508323;
	configuration 100044450-LINECONFIG;
	groupid Distribution_Line;
};

object regulator_configuration {
	Control OUTPUT_VOLTAGE;
	Type A;
	raise_taps 16.0;
	name R254-CONFIG;
	band_center 125.0004;
	current_transducer_ratio 150;
	tap_pos_B 1;
	time_delay 30.0;
	connect_type WYE_WYE;
	regulation 0.1;
	CT_phase ABC;
	power_transducer_ratio 60.0;
	lower_taps 16.0;
	tap_pos_A 1;
	control_level INDIVIDUAL;
	tap_pos_C 1;
	PT_phase ABC;
	band_width 2.000004;
};

object regulator {
	phases ACB;
	from nodeR254100096888;
	name R254;
	longitude 296.572330102;
	to node100096898R254;
	latitude 145.673508323;
	configuration R254-CONFIG;
};

object overhead_line {
	phases ACBN;
	from node100096898R254;
	name 100096898;
	longitude 291.975594156;
	to node100096903100096898;
	length 239.748;
	latitude 145.46858928;
	configuration 100044450-LINECONFIG;
	groupid Distribution_Line;
};

object overhead_line {
	phases ACBN;
	from node100096903100096898;
	name 100096903;
	longitude 288.329146066;
	to node100096908100096903;
	length 190.237;
	latitude 145.266669796;
	configuration 100044450-LINECONFIG;
	groupid Distribution_Line;
};

object overhead_line {
	phases ACBN;
	from node100096908100096903;
	name 100096908;
	longitude 283.829463979;
	to node100097027100096908;
	length 234.759;
	latitude 145.011918389;
	configuration 100044450-LINECONFIG;
	groupid Distribution_Line;
};

object overhead_line {
	phases C;
	from node100097027100096908;
	name 100097027;
	longitude 283.825443337;
	to nodeT99070042100097027;
	length 222.527;
	latitude 139.039248051;
	configuration 100038549-LINECONFIG;
	groupid Distribution_Line;
};

object overhead_line {
	phases ACBN;
	from node100097027100096908;
	name 100096913;
	longitude 280.020859032;
	to node100096918100096913;
	length 198.545;
	latitude 145.042451135;
	configuration 100044450-LINECONFIG;
	groupid Distribution_Line;
};

object overhead_line {
	phases ACBN;
	from node100096918100096913;
	name 100096918;
	longitude 276.226533568;
	to node100096923100096918;
	length 197.798;
	latitude 145.055817205;
	configuration 100044450-LINECONFIG;
	groupid Distribution_Line;
};

object overhead_line {
	phases ACBN;
	from node100096923100096918;
	name 100096923;
	longitude 272.574371812;
	to node100096933100096923;
	length 190.387;
	latitude 145.039235351;
	configuration 100044450-LINECONFIG;
	groupid Distribution_Line;
};

object overhead_line {
	phases ACBN;
	from node100096933100096923;
	name 100096933;
	longitude 268.357105177;
	to node100096938100096933;
	length 219.903;
	latitude 144.903397533;
	configuration 100044450-LINECONFIG;
	groupid Distribution_Line;
};

object overhead_line {
	phases ACBN;
	from node100096938100096933;
	name 100096938;
	longitude 264.709728616;
	to node100096943100096938;
	length 190.185;
	latitude 144.788451658;
	configuration 100044450-LINECONFIG;
	groupid Distribution_Line;
};

object overhead_line {
	phases ACBN;
	from node100096943100096938;
	name 100096943;
	longitude 260.583277641;
	to node100097083100096943;
	length 215.166;
	latitude 144.657723393;
	configuration 100044450-LINECONFIG;
	groupid Distribution_Line;
};

object overhead_line {
	phases C;
	from node100097083100096943;
	name 100097083;
	longitude 260.80096125;
	to nodeT99070280100097083;
	length 153.11;
	latitude 140.55951801;
	configuration 100038549-LINECONFIG;
	groupid Distribution_Line;
};

object overhead_line {
	phases ACBN;
	from node100097083100096943;
	name 100096948;
	longitude 256.099510687;
	to node100096953100096948;
	length 233.78;
	latitude 144.537967771;
	configuration 100044450-LINECONFIG;
	groupid Distribution_Line;
};

object overhead_line {
	phases ACBN;
	from node100096953100096948;
	name 100096953;
	longitude 252.146139268;
	to node100096958100096953;
	length 206.121;
	latitude 144.438932073;
	configuration 100044450-LINECONFIG;
	groupid Distribution_Line;
};

object overhead_line {
	phases ACBN;
	from node100096958100096953;
	name 100096958;
	longitude 247.539811859;
	to node100096963100096958;
	length 240.167;
	latitude 144.32090966;
	configuration 100044450-LINECONFIG;
	groupid Distribution_Line;
};

object overhead_line {
	phases ACBN;
	from node100096963100096958;
	name 100096963;
	longitude 242.745579806;
	to node100096968100096963;
	length 249.988;
	latitude 144.166240749;
	configuration 100044450-LINECONFIG;
	groupid Distribution_Line;
};

object overhead_line {
	phases ACBN;
	from node100096968100096963;
	name 100096968;
	longitude 237.780428384;
	to node100096978100096968;
	length 258.945;
	latitude 143.960310955;
	configuration 100044450-LINECONFIG;
	groupid Distribution_Line;
};

object overhead_line {
	phases ACBN;
	from node100096978100096968;
	name 100096978;
	longitude 237.783210282;
	to node100096983100096978;
	length 233.135;
	latitude 137.702920003;
	configuration 100044450-LINECONFIG;
	groupid Distribution_Line;
};

object overhead_line {
	phases ACBN;
	from node100096983100096978;
	name 100096983;
	longitude 236.629494881;
	to node100096550100096983;
	length 221.123;
	latitude 131.991658743;
	configuration 100044450-LINECONFIG;
	groupid Distribution_Line;
};

object overhead_line {
	phases ACB;
	from node100096550100096983;
	name 100096550;
	longitude 236.712894484;
	to nodeSW-14851-A100096550;
	length 215.71;
	latitude 126.203112158;
	configuration 100044450-LINECONFIG;
	groupid Distribution_Line;
};

object overhead_line {
	phases ABN;
	from node100096978100096968;
	name 100097760;
	longitude 235.39642393;
	to node100097038100097760;
	length 124.739;
	latitude 143.672449897;
	configuration 100044450-LINECONFIG;
	groupid Distribution_Line;
};

object overhead_line {
	phases B;
	from node100097038100097760;
	name 100097038;
	longitude 233.732911455;
	to nodeD14725100097038;
	length 88.8974;
	latitude 144.197499228;
	configuration 100034925-LINECONFIG;
	groupid Distribution_Line;
};

object fuse {
	phases B;
	from nodeD14725100097038;
	name D14725;
	current_limit 9999.0 A;
	longitude 233.732911455;
	to node100097036D14725;
	latitude 144.197499228;
};

object overhead_line {
	phases BN;
	from node100097036D14725;
	name 100097036;
	longitude 207.733295931;
	to node100097039100097036;
	length 1355.82;
	latitude 143.251293518;
	configuration 100034925-LINECONFIG;
	groupid Distribution_Line;
};

object overhead_line {
	phases B;
	from node100097039100097036;
	name 100097039;
	longitude 207.889698142;
	to nodeT99060277100097039;
	length 260.729;
	latitude 136.256691752;
	configuration 100041200-LINECONFIG;
	groupid Distribution_Line;
};

object overhead_line {
	phases BN;
	from node100097039100097036;
	name 100097041;
	longitude 183.75053154;
	to node100097042100097041;
	length 1250.71;
	latitude 142.304547218;
	configuration 100034925-LINECONFIG;
	groupid Distribution_Line;
};

object overhead_line {
	phases B;
	from node100097042100097041;
	name 100097042;
	longitude 173.955232763;
	to nodeT99050033100097042;
	length 1190.81;
	latitude 160.382814988;
	configuration 100034925-LINECONFIG;
	groupid Distribution_Line;
};

object overhead_line {
	phases AN;
	from node100097038100097760;
	name 100097767;
	longitude 237.777093852;
	to node100097768100097767;
	length 245.022;
	latitude 149.342936413;
	configuration 100094845-LINECONFIG;
	groupid Distribution_Line;
};

object overhead_line {
	phases A;
	from node100097768100097767;
	name 100097768;
	longitude 237.781936417;
	to nodeD14598100097768;
	length 204.062;
	latitude 154.820000746;
	configuration 100094845-LINECONFIG;
	groupid Distribution_Line;
};

object fuse {
	phases A;
	from nodeD14598100097768;
	name D14598;
	current_limit 9999.0 A;
	longitude 237.781936417;
	to node100097791D14598;
	latitude 154.820000746;
};

object overhead_line {
	phases AN;
	from node100097791D14598;
	name 100097791;
	longitude 237.832456688;
	to node100097725100097791;
	length 229.552;
	latitude 160.980821492;
	configuration 100094845-LINECONFIG;
	groupid Distribution_Line;
};

object overhead_line {
	phases AN;
	from node100097725100097791;
	name 100097725;
	longitude 237.890487854;
	to node100097726100097725;
	length 237.735;
	latitude 167.361167451;
	configuration 100094845-LINECONFIG;
	groupid Distribution_Line;
};

object overhead_line {
	phases AN;
	from node100097726100097725;
	name 100097726;
	longitude 237.911839164;
	to node100097727100097726;
	length 215;
	latitude 173.131746286;
	configuration 100094845-LINECONFIG;
	groupid Distribution_Line;
};

object overhead_line {
	phases AN;
	from node100097727100097726;
	name 100097727;
	longitude 237.945343722;
	to node100097728100097727;
	length 237.084;
	latitude 179.494963225;
	configuration 100094845-LINECONFIG;
	groupid Distribution_Line;
};

object overhead_line {
	phases AN;
	from node100097728100097727;
	name 100097728;
	longitude 237.992675816;
	to node100097729100097728;
	length 225;
	latitude 185.533661173;
	configuration 100094845-LINECONFIG;
	groupid Distribution_Line;
};

object overhead_line {
	phases AN;
	from node100097729100097728;
	name 100097729;
	longitude 238.018794758;
	to node100097730100097729;
	length 215.652;
	latitude 191.321701551;
	configuration 100094845-LINECONFIG;
	groupid Distribution_Line;
};

object overhead_line {
	phases AN;
	from node100097730100097729;
	name 100097730;
	longitude 238.022489906;
	to node100097731100097730;
	length 220.868;
	latitude 197.249865275;
	configuration 100094845-LINECONFIG;
	groupid Distribution_Line;
};

object overhead_line {
	phases AN;
	from node100097731100097730;
	name 100097731;
	longitude 238.047059837;
	to node100097732100097731;
	length 202.155;
	latitude 202.675660541;
	configuration 100094845-LINECONFIG;
	groupid Distribution_Line;
};

object overhead_line {
	phases AN;
	from node100097732100097731;
	name 100097732;
	longitude 238.06311547;
	to node100097810100097732;
	length 202.593;
	latitude 208.11326396;
	configuration 100094845-LINECONFIG;
	groupid Distribution_Line;
};

object overhead_line {
	phases AN;
	from node100097810100097732;
	name 100097810;
	longitude 238.079175785;
	to node100097811100097810;
	length 201.955;
	latitude 213.533733448;
	configuration 100094845-LINECONFIG;
	groupid Distribution_Line;
};

object overhead_line {
	phases AN;
	from node100097811100097810;
	name 100097811;
	longitude 238.091165115;
	to node100097812100097811;
	length 201.207;
	latitude 218.934152999;
	configuration 100094845-LINECONFIG;
	groupid Distribution_Line;
};

object overhead_line {
	phases AN;
	from node100097812100097811;
	name 100097812;
	longitude 238.106093235;
	to node100097813100097812;
	length 182.139;
	latitude 223.822751706;
	configuration 100094845-LINECONFIG;
	groupid Distribution_Line;
};

object overhead_line {
	phases AN;
	from node100097813100097812;
	name 100097813;
	longitude 238.115607424;
	to node100097814100097813;
	length 185.076;
	latitude 228.790226425;
	configuration 100094845-LINECONFIG;
	groupid Distribution_Line;
};

object overhead_line {
	phases AN;
	from node100097814100097813;
	name 100097814;
	longitude 238.13418386;
	to node100097815100097814;
	length 191.203;
	latitude 233.922087837;
	configuration 100094845-LINECONFIG;
	groupid Distribution_Line;
};

object overhead_line {
	phases AN;
	from node100097815100097814;
	name 100097815;
	longitude 238.156003504;
	to node100097816100097815;
	length 191.087;
	latitude 239.050815381;
	configuration 100094845-LINECONFIG;
	groupid Distribution_Line;
};

object overhead_line {
	phases AN;
	from node100097816100097815;
	name 100097816;
	longitude 238.166227218;
	to node100097817100097816;
	length 201.645;
	latitude 244.46299558;
	configuration 100094845-LINECONFIG;
	groupid Distribution_Line;
};

object overhead_line {
	phases AN;
	from node100097817100097816;
	name 100097817;
	longitude 238.178439006;
	to node100097818100097817;
	length 182.326;
	latitude 249.356644844;
	configuration 100094845-LINECONFIG;
	groupid Distribution_Line;
};

object overhead_line {
	phases AN;
	from node100097818100097817;
	name 100097818;
	longitude 238.190428336;
	to node100097819100097818;
	length 230.009;
	latitude 255.530117413;
	configuration 100094845-LINECONFIG;
	groupid Distribution_Line;
};

object overhead_line {
	phases AN;
	from node100097819100097818;
	name 100097819;
	longitude 238.203664602;
	to node100097820100097819;
	length 209.053;
	latitude 261.141132372;
	configuration 100094845-LINECONFIG;
	groupid Distribution_Line;
};

object overhead_line {
	phases AN;
	from node100097820100097819;
	name 100097820;
	longitude 238.210398063;
	to node100097821100097820;
	length 219.106;
	latitude 267.021981644;
	configuration 100094845-LINECONFIG;
	groupid Distribution_Line;
};

object overhead_line {
	phases AN;
	from node100097821100097820;
	name 100097821;
	longitude 238.245457485;
	to node100097822100097821;
	length 230.848;
	latitude 273.217805782;
	configuration 100094845-LINECONFIG;
	groupid Distribution_Line;
};

object overhead_line {
	phases AN;
	from node100097822100097821;
	name 100097822;
	longitude 238.248100055;
	to node100094964100097822;
	length 207.522;
	latitude 278.787738005;
	configuration 100094845-LINECONFIG;
	groupid Distribution_Line;
};

object overhead_line {
	phases AN;
	from node100094964100097822;
	name 100094964;
	longitude 238.265314812;
	to node100097469100094964;
	length 216.344;
	latitude 284.594422722;
	configuration 100094845-LINECONFIG;
	groupid Distribution_Line;
};

object overhead_line {
	phases A;
	from node100097469100094964;
	name 100097469;
	longitude 236.769130763;
	to nodeR259100097469;
	length 203.041;
	latitude 289.625972289;
	configuration 100094845-LINECONFIG;
	groupid Distribution_Line;
};

object regulator_configuration {
	Control OUTPUT_VOLTAGE;
	Type A;
	raise_taps 16.0;
	name R259-CONFIG;
	band_center 125.0004;
	current_transducer_ratio 50;
	time_delay 30.0;
	connect_type WYE_WYE;
	regulation 0.1;
	CT_phase A;
	power_transducer_ratio 60.0;
	lower_taps 16.0;
	tap_pos_A 1;
	control_level INDIVIDUAL;
	PT_phase A;
	band_width 2.000004;
};

object regulator {
	phases A;
	from nodeR259100097469;
	name R259;
	longitude 236.769130763;
	to node100097472R259;
	latitude 289.625972289;
	configuration R259-CONFIG;
};

object overhead_line {
	phases AN;
	from node100097472R259;
	name 100097472;
	longitude 236.775066886;
	to node100097471100097472;
	length 263.463;
	latitude 296.697369572;
	configuration 100094845-LINECONFIG;
	groupid Distribution_Line;
};

object overhead_line {
	phases AN;
	from node100097471100097472;
	name 100097471;
	longitude 236.702064279;
	to node100097781100097471;
	length 184.694;
	latitude 301.65355053;
	configuration 100094845-LINECONFIG;
	groupid Distribution_Line;
};

object overhead_line {
	phases AN;
	from node100097781100097471;
	name 100097781;
	longitude 236.567871598;
	to node100097782100097781;
	length 195.267;
	latitude 306.891195361;
	configuration 100094845-LINECONFIG;
	groupid Distribution_Line;
};

object overhead_line {
	phases AN;
	from node100097782100097781;
	name 100097782;
	longitude 236.424260738;
	to node100097783100097782;
	length 173.209;
	latitude 311.535830215;
	configuration 100094845-LINECONFIG;
	groupid Distribution_Line;
};

object overhead_line {
	phases AN;
	from node100097783100097782;
	name 100097783;
	longitude 236.283031351;
	to node100097784100097783;
	length 195.147;
	latitude 316.769889026;
	configuration 100094845-LINECONFIG;
	groupid Distribution_Line;
};

object overhead_line {
	phases AN;
	from node100097784100097783;
	name 100097784;
	longitude 236.155131897;
	to node100097785100097784;
	length 170.974;
	latitude 321.355389786;
	configuration 100094845-LINECONFIG;
	groupid Distribution_Line;
};

object overhead_line {
	phases AN;
	from node100097785100097784;
	name 100097785;
	longitude 236.000091366;
	to node100097786100097785;
	length 226.671;
	latitude 327.435437504;
	configuration 100094845-LINECONFIG;
	groupid Distribution_Line;
};

object overhead_line {
	phases AN;
	from node100097786100097785;
	name 100097786;
	longitude 235.826961462;
	to node100097787100097786;
	length 226.725;
	latitude 333.515968481;
	configuration 100094845-LINECONFIG;
	groupid Distribution_Line;
};

object overhead_line {
	phases AN;
	from node100097787100097786;
	name 100097787;
	longitude 235.647962176;
	to node100097788100097787;
	length 236.841;
	latitude 339.867911361;
	configuration 100094845-LINECONFIG;
	groupid Distribution_Line;
};

object overhead_line {
	phases AN;
	from node100097788100097787;
	name 100097788;
	longitude 235.460586748;
	to node100097789100097788;
	length 217.754;
	latitude 345.706590114;
	configuration 100094845-LINECONFIG;
	groupid Distribution_Line;
};

object overhead_line {
	phases AN;
	from node100097789100097788;
	name 100097789;
	longitude 235.318771946;
	to node100097790100097789;
	length 228.723;
	latitude 351.842357874;
	configuration 100094845-LINECONFIG;
	groupid Distribution_Line;
};

object overhead_line {
	phases AN;
	from node100097790100097789;
	name 100097790;
	longitude 235.338671423;
	to node100036804100097790;
	length 188.458;
	latitude 356.900531467;
	configuration 100094845-LINECONFIG;
	groupid Distribution_Line;
};

object overhead_line {
	phases A;
	from node100036804100097790;
	name 100036804;
	longitude 235.86175979;
	to nodeSW218-A-B100036804;
	length 175.066;
	latitude 361.541994743;
	configuration 100097855-LINECONFIG;
	groupid Distribution_Line;
};

object overhead_line {
	phases AN;
	from node100036804100097790;
	name 100094719;
	longitude 232.130238976;
	to node100094722100094719;
	length 168.806;
	latitude 357.513461984;
	configuration 100094845-LINECONFIG;
	groupid Distribution_Line;
};

object overhead_line {
	phases AN;
	from node100094722100094719;
	name 100094722;
	longitude 229.064365982;
	to node100094725100094722;
	length 159.859;
	latitude 357.423041577;
	configuration 100094845-LINECONFIG;
	groupid Distribution_Line;
};

object overhead_line {
	phases AN;
	from node100094725100094722;
	name 100094725;
	longitude 224.893253583;
	to node100094728100094725;
	length 217.456;
	latitude 357.349805909;
	configuration 100094845-LINECONFIG;
	groupid Distribution_Line;
};

object overhead_line {
	phases AN;
	from node100094728100094725;
	name 100094728;
	longitude 220.766064983;
	to node100094731100094728;
	length 215.19;
	latitude 357.236925794;
	configuration 100094845-LINECONFIG;
	groupid Distribution_Line;
};

object overhead_line {
	phases AN;
	from node100094731100094728;
	name 100094731;
	longitude 216.600799726;
	to node100094734100094731;
	length 217.163;
	latitude 357.141079684;
	configuration 100094845-LINECONFIG;
	groupid Distribution_Line;
};

object overhead_line {
	phases AN;
	from node100094734100094731;
	name 100094734;
	longitude 212.66595908;
	to node100094737100094734;
	length 205.149;
	latitude 357.051960036;
	configuration 100094845-LINECONFIG;
	groupid Distribution_Line;
};

object overhead_line {
	phases AN;
	from node100094737100094734;
	name 100094737;
	longitude 209.286860164;
	to node100045599100094737;
	length 181.112;
	latitude 355.921979523;
	configuration 100094845-LINECONFIG;
	groupid Distribution_Line;
};

object overhead_line {
	phases AN;
	from node100045599100094737;
	name 100045599;
	longitude 188.78608398;
	to node100044238100045599;
	length 1069.62;
	latitude 354.73327286;
	configuration 100097855-LINECONFIG;
	groupid Distribution_Line;
};

object overhead_line {
	phases AN;
	from node100044238100045599;
	name 100044238;
	longitude 187.268189174;
	to node100033137100044238;
	length 80.5063;
	latitude 354.335059448;
	configuration 100097855-LINECONFIG;
	groupid Distribution_Line;
};

object overhead_line {
	phases AN;
	from node100033137100044238;
	name 100033137;
	longitude 175.764881586;
	to node100033628100033137;
	length 599.746;
	latitude 354.069035592;
	configuration 100097855-LINECONFIG;
	groupid Distribution_Line;
};

object overhead_line {
	phases AN;
	from node100033628100033137;
	name 100033628;
	longitude 158.807672398;
	to node100035506100033628;
	length 883.974;
	latitude 354.069582757;
	configuration 100097855-LINECONFIG;
	groupid Distribution_Line;
};

object overhead_line {
	phases AN;
	from node100035506100033628;
	name 100035506;
	longitude 143.1842176;
	to node100031879100035506;
	length 820.286;
	latitude 356.692106685;
	configuration 100097855-LINECONFIG;
	groupid Distribution_Line;
};

object overhead_line {
	phases AN;
	from node100031879100035506;
	name 100031879;
	longitude 128.064491446;
	to node100036180100031879;
	length 912.774;
	latitude 368.155272943;
	configuration 100097855-LINECONFIG;
	groupid Distribution_Line;
};

object overhead_line {
	phases A;
	from node100036180100031879;
	name 100036180;
	longitude 132.703341084;
	to nodeT13330068100036180;
	length 665.934;
	latitude 383.538929478;
	configuration 100094845-LINECONFIG;
	groupid Distribution_Line;
};

object overhead_line {
	phases AN;
	from node100036180100031879;
	name 100081267;
	longitude 122.633259515;
	to node100081268100081267;
	length 433.05;
	latitude 376.950135815;
	configuration 100097855-LINECONFIG;
	groupid Distribution_Line;
};

object overhead_line {
	phases AN;
	from node100081268100081267;
	name 100081268;
	longitude 123.843084746;
	to node100081264100081268;
	length 975.067;
	latitude 402.957057258;
	configuration 100097855-LINECONFIG;
	groupid Distribution_Line;
};

object overhead_line {
	phases A;
	from node100081264100081268;
	name 100081264;
	longitude 126.811320808;
	to nodeT13340058100081264;
	length 1538.17;
	latitude 441.21079875;
	configuration 100097855-LINECONFIG;
	groupid Distribution_Line;
};

object overhead_line {
	phases AN;
	from node100031879100035506;
	name 100033232;
	longitude 130.743168803;
	to node100036004100033232;
	length 730.265;
	latitude 347.723221228;
	configuration 100097855-LINECONFIG;
	groupid Distribution_Line;
};

object overhead_line {
	phases A;
	from node100036004100033232;
	name 100036004;
	longitude 128.762585391;
	to nodeT13330056100036004;
	length 1159.84;
	latitude 325.451491725;
	configuration 100097855-LINECONFIG;
	groupid Distribution_Line;
};

object underground_line {
	phases A;
	from node100031879100035506;
	name 100045474;
	longitude 142.144928876;
	to nodeT99040031100045474;
	length 493.633;
	latitude 369.861308096;
	configuration 100047718-LINECONFIG;
	groupid Distribution_Line;
};

object overhead_line {
	phases A;
	from node100033628100033137;
	name 100044154;
	longitude 175.829777345;
	to nodeT99040027100044154;
	length 209.63;
	latitude 348.443244081;
	configuration 100097855-LINECONFIG;
	groupid Distribution_Line;
};

object overhead_line {
	phases AN;
	from node100045599100094737;
	name 100094740;
	longitude 209.299385735;
	to node100094743100094740;
	length 125.875;
	latitude 359.300442184;
	configuration 100094845-LINECONFIG;
	groupid Distribution_Line;
};

object overhead_line {
	phases AN;
	from node100094743100094740;
	name 100094743;
	longitude 209.212587202;
	to node100094746100094743;
	length 198.603;
	latitude 364.629601725;
	configuration 100094845-LINECONFIG;
	groupid Distribution_Line;
};

object overhead_line {
	phases AN;
	from node100094746100094743;
	name 100094746;
	longitude 209.132225909;
	to node100094749100094746;
	length 198.432;
	latitude 369.954390573;
	configuration 100094845-LINECONFIG;
	groupid Distribution_Line;
};

object overhead_line {
	phases AN;
	from node100094749100094746;
	name 100094749;
	longitude 208.820607542;
	to node100036447100094749;
	length 191.853;
	latitude 375.085269068;
	configuration 100094845-LINECONFIG;
	groupid Distribution_Line;
};

object overhead_line {
	phases A;
	from node100036447100094749;
	name 100036447;
	longitude 210.335927685;
	to node100035308100036447;
	length 79.9225;
	latitude 375.41144923;
	configuration 100097855-LINECONFIG;
	groupid Distribution_Line;
};

object underground_line {
	phases A;
	from node100035308100036447;
	name 100035308;
	longitude 211.09361937;
	to nodeD12009100035308;
	length 39.6131;
	latitude 375.492371355;
	configuration 100047718-LINECONFIG;
	groupid Distribution_Line;
};

object fuse {
	phases A;
	from nodeD12009100035308;
	name D12009;
	current_limit 9999.0 A;
	longitude 211.09361937;
	to node100035907D12009;
	latitude 375.492371355;
};

object underground_line {
	phases A;
	from node100035907D12009;
	name 100035907;
	longitude 219.544396777;
	to nodeT99040025100035907;
	length 453.389;
	latitude 375.003717888;
	configuration 100047718-LINECONFIG;
	groupid Distribution_Line;
};

object overhead_line {
	phases AN;
	from node100036447100094749;
	name 100094752;
	longitude 208.907674194;
	to node100094755100094752;
	length 199.218;
	latitude 380.430935123;
	configuration 100094845-LINECONFIG;
	groupid Distribution_Line;
};

object overhead_line {
	phases AN;
	from node100094755100094752;
	name 100094755;
	longitude 208.762056526;
	to node100094758100094755;
	length 191.678;
	latitude 385.571573995;
	configuration 100094845-LINECONFIG;
	groupid Distribution_Line;
};

object overhead_line {
	phases AN;
	from node100094758100094755;
	name 100094758;
	longitude 208.649376731;
	to node100094761100094758;
	length 193.784;
	latitude 390.770401728;
	configuration 100094845-LINECONFIG;
	groupid Distribution_Line;
};

object overhead_line {
	phases AN;
	from node100094761100094758;
	name 100094761;
	longitude 208.539902675;
	to node100094764100094761;
	length 185.871;
	latitude 395.75686971;
	configuration 100094845-LINECONFIG;
	groupid Distribution_Line;
};

object overhead_line {
	phases AN;
	from node100094764100094761;
	name 100094764;
	longitude 208.379860345;
	to node100094767100094764;
	length 186.577;
	latitude 400.759624679;
	configuration 100094845-LINECONFIG;
	groupid Distribution_Line;
};

object overhead_line {
	phases AN;
	from node100094767100094764;
	name 100094767;
	longitude 208.216064323;
	to node100094770100094767;
	length 228.094;
	latitude 406.877429573;
	configuration 100094845-LINECONFIG;
	groupid Distribution_Line;
};

object overhead_line {
	phases AN;
	from node100094770100094767;
	name 100094770;
	longitude 208.062774185;
	to node100094773100094770;
	length 220.131;
	latitude 412.78190495;
	configuration 100094845-LINECONFIG;
	groupid Distribution_Line;
};

object overhead_line {
	phases AN;
	from node100094773100094770;
	name 100094773;
	longitude 207.889248542;
	to node100094776100094773;
	length 220.587;
	latitude 418.697544664;
	configuration 100094845-LINECONFIG;
	groupid Distribution_Line;
};

object overhead_line {
	phases AN;
	from node100094776100094773;
	name 100094776;
	longitude 207.762377081;
	to node100094779100094776;
	length 165.005;
	latitude 423.122760753;
	configuration 100094845-LINECONFIG;
	groupid Distribution_Line;
};

object overhead_line {
	phases AN;
	from node100094779100094776;
	name 100094779;
	longitude 207.421853188;
	to node100036803100094779;
	length 228.297;
	latitude 429.231747255;
	configuration 100094845-LINECONFIG;
	groupid Distribution_Line;
};

object overhead_line {
	phases A;
	from node100036803100094779;
	name 100036803;
	longitude 205.372870883;
	to nodeSW219-A-A100036803;
	length 338.326;
	latitude 437.848069361;
	configuration 100097855-LINECONFIG;
	groupid Distribution_Line;
};

object overhead_line {
	phases AN;
	from node100036803100094779;
	name 100094785;
	longitude 200.10284509;
	to node100035804100094785;
	length 381.688;
	latitude 429.518959584;
	configuration 100094845-LINECONFIG;
	groupid Distribution_Line;
};

object overhead_line {
	phases A;
	from node100035804100094785;
	name 100035804;
...